24
Anthracene
C 0.0000	2.4796	1.4071
C 0.0000	3.6606	0.7132
C 0.0000	3.6606	-0.7132
C 0.0000	2.4796	-1.4071
C 0.0000	-2.4796	-1.4071
C 0.0000	-3.6606	-0.7132
C 0.0000	-3.6606	0.7132
C 0.0000	-2.4796	1.4071
C 0.0000	0.0000	1.4034
C	0.0000	0.0000	-1.4034
C	0.0000	1.2239	0.7225
C	0.0000	1.2239	-0.7225
C	0.0000	-1.2239	-0.7225
C	0.0000	-1.2239	0.7225
H	0.0000	2.4770	2.4946
H	0.0000	4.6072	1.2468
H	0.0000	4.6072	-1.2468
H	0.0000	2.4770	-2.4946
H	0.0000	-2.4770	-2.4946
H	0.0000	-4.6072	-1.2468
H	0.0000	-4.6072	1.2468
H	0.0000	-2.4770	2.4946
H	0.0000	0.0000	2.4918
H	0.0000	0.0000	-2.4918
