12
Benzene
C	0.0000 	1.3966 	0.0000
C	1.2095 	0.6983 	0.0000
C	1.2095 	-0.6983 	0.0000
C	0.0000 	-1.3966 	0.0000
C	-1.2095 	-0.6983 	0.0000
C	-1.2095 	0.6983 	0.0000
H	0.0000 	2.4836 	0.0000
H	2.1509 	1.2418 	0.0000
H	2.1509 	-1.2418 	0.0000
H 	0.0000 	-2.4836 	0.0000
H 	-2.1509 	-1.2418 	0.0000
H 	-2.1509 	1.2418 	0.0000 
